98ROZTOMILOST
10SÍLA
100MĚKKOST
30RYCHLOSTSIR PUFÍK
Cukroví vládci
Nejměkčí strážce Cukrového údolí.
92ROZTOMILOST
45SÍLA
60MĚKKOST
50RYCHLOST
LORD
KARAMEL
Cukroví vládci
Sladký hrdina, který se nikdy
nepřilepí.
95ROZTOMILOST
15SÍLA
95MĚKKOST
40RYCHLOSTBARON VLNKA
Cukroví vládci
Pletený rytíř, co se nikdy nerozpáře.
89ROZTOMILOST
55SÍLA
40MĚKKOST
35RYCHLOST
PRINC
PRALINKA
Cukroví vládci
Elegantní šlechtic z Dezertního
stolku.
100ROZTOMILOST
70SÍLA
20MĚKKOST
85RYCHLOST
KAPITÁN
TLAPKA
Zvířecí strá žci
Nejvěrnější rytíř s nejvrtivějším
ocasem.
85ROZTOMILOST
30SÍLA
15MĚKKOST
95RYCHLOST
SQUIRELOUS
KRÁTKÝ
Zvířecí strá žci
Rychlý jako blesk, malý jako oříšek.
88ROZTOMILOST
65SÍLA
5MĚKKOST
60RYCHLOST
SIR JEŽURKA
Zvířecí strá žci
Nedotknutelný obránce záhonů s
jahodami.
96ROZTOMILOST
40SÍLA
85MĚKKOST
80RYCHLOST
DON KŘEČEK
Zvířecí strá žci
Hrdina, který se kutálí vstříc
dobrodružství.
94ROZTOMILOST
35SÍLA
90MĚKKOST
100RYCHLOSTVÁNEK UŠATÝ
Hmyzí bojovníci
Skáče výš než kdokoli jiný v brnění.
1A
 1B
 1C
1D
 2A
 2B
2C
 2D
 3A

82ROZTOMILOST
25SÍLA
70MĚKKOST
5RYCHLOST
RYTÍŘ ROSA
Hmyzí bojovníci
Nejpomalejší, ale nejdůslednější
hlídka.
80ROZTOMILOST
50SÍLA
80MĚKKOST
90RYCHLOST
SLEČNA PÍRKO
Hmyzí bojovníci
Moudrost schovaná v chomáčku
peří.
86ROZTOMILOST
60SÍLA
30MĚKKOST
75RYCHLOST
BROUČEK
ZBROJNOŠ
Hmyzí bojovníci
Malý puntíkatý tank v moři květin.
89ROZTOMILOST
40SÍLA
88MĚKKOST
30RYCHLOST
SIR KNOFLÍK
Hračkoví rytí ři
Hrdina slepený z čisté dětské
fantazie.
70ROZTOMILOST
85SÍLA
15MĚKKOST
40RYCHLOST
LEGO-LÁS
Hračkoví rytí ři
Pevný jako skála, pokud na něj
nešlápnete.
75ROZTOMILOST
90SÍLA
10MĚKKOST
15RYCHLOST
VOJÁČEK
OLOVĚNÝ
Hračkoví rytí ři
Stojí pevně i na jedné noze.
81ROZTOMILOST
55SÍLA
40MĚKKOST
95RYCHLOST
JOJO RYTÍŘ
Hračkoví rytí ři
Hrdina, který se vždycky vrátí
nahoru.
97ROZTOMILOST
20SÍLA
100MĚKKOST
100RYCHLOST
HVĚZDIČKA
JASNÁ
Snoví strá žci
Svítí všem dětem na cestu do říše
snů.
93ROZTOMILOST
15SÍLA
100MĚKKOST
10RYCHLOST
LORD POLŠTÁŘ
Snoví strá žci
Šampion v nejtěžší váze
prachového peří.
3B
 3C
 3D
4A
 4B
 4C
4D
 5A
 5B

88ROZTOMILOST
75SÍLA
90MĚKKOST
85RYCHLOST
SNÍLEK MODRÝ
Snoví strá žci
Cestovatel v nekonečných
oceánech fantazie.
91ROZTOMILOST
30SÍLA
80MĚKKOST
95RYCHLOST
ZVONILKA
ZBROJNÁ
Snoví strá žci
Její příchod vždycky jemně cinká.
84ROZTOMILOST
45SÍLA
100MĚKKOST
80RYCHLOST
SIR KAPKA
Mořští hrdinové
Nejosvěživější hrdina pod hladinou
moře.
96ROZTOMILOST
35SÍLA
10MĚKKOST
60RYCHLOST
ADMIRÁL
KACHNIČKA
Mořští hrdinové
Neohrožený vládce všech vln ve
vaně.
83ROZTOMILOST
80SÍLA
30MĚKKOST
25RYCHLOST
RYTÍŘ KORÁL
Mořští hrdinové
Krása mořského dna zakovaná do
zbroje.
99ROZTOMILOST
65SÍLA
25MĚKKOST
90RYCHLOST
PLOUTVIČKA
CHRABRÁ
Mořští hrdinové
Klouže do boje s úsměvem a
hrdostí.
95ROZTOMILOST
30SÍLA
70MĚKKOST
45RYCHLOST
SIR JAHŮDKA
Ovocní bojovníci
Nejsladší bojovník v celém
ovocném salátu.
78ROZTOMILOST
40SÍLA
15MĚKKOST
55RYCHLOST
LORD CITRON
Ovocní bojovníci
Trochu kyselý rytíř, ale s velkým
srdcem.
87ROZTOMILOST
25SÍLA
90MĚKKOST
70RYCHLOST
BARON
BORŮVKA
Ovocní bojovníci
Kutálející se kulička odvahy a
vitamínů.
5C
 5D
 6A
6B
 6C
 6D
7A
 7B
 7C

79ROZTOMILOST
85SÍLA
5MĚKKOST
35RYCHLOST
PRINC ANANAS
Ovocní bojovníci
Drsný navenek, neuvěřitelně sladký
uvnitř.
85ROZTOMILOST
50SÍLA
10MĚKKOST
60RYCHLOST
RYTÍŘ ŠMUDLA
Drobní rytí ři
Šťastný hrdina, který se nikdy nebojí
bláta.
74ROZTOMILOST
20SÍLA
5MĚKKOST
85RYCHLOST
SQUIRE ČÁRA
Drobní rytí ři
Jednoduchý hrdina pro velmi
složité časy.
92ROZTOMILOST
40SÍLA
10MĚKKOST
75RYCHLOST
BARON V
NÁPRSTKU
Drobní rytí ři
Velikost není překážkou pro ty
největší činy.
98ROZTOMILOST
35SÍLA
100MĚKKOST
5RYCHLOST
SIR HAJAJA
Drobní rytí ři
Nejudatnější hrdina... ve svých
snech.
7D
 8A
 8B
8C
 8D

